%chk=b.chk
# hf/3-21g geom=connectivity

b

0 1
 C                 -1.91641180   -0.47400611    0.00000000
 C                 -0.39455380   -0.47400611    0.00000000
 C                  0.07421920    0.97385889    0.00000000
 C                 -1.15352080    1.86342689   -0.13318600
 C                 -2.38561780    0.97031389   -0.10359000
 H                 -2.30837380   -1.07645111   -0.85750800
 H                 -2.30652680   -0.94441711    0.93750400
 H                 -0.00592680   -1.00860411   -0.90328000
 H                 -0.00118680   -1.01473811    0.89683700
 H                  0.62115420    1.20555189    0.94858800
 H                 -1.18919780    2.60949689    0.69979800
 H                 -3.03799580    1.23211589    0.76707400
 H                 -2.99736380    1.11793589   -1.02879300
 C                 -1.09968634    2.65824232   -1.45112769
 H                 -1.97160254    3.27306307   -1.53272181
 H                 -0.22582145    3.27564331   -1.45985516
 H                 -1.06423060    1.97826220   -2.27651846
 C                  1.05431670    1.22602206   -1.16078535
 H                  1.34324458    2.25626049   -1.16621314
 H                  0.57859969    0.98411773   -2.08818797
 C                  2.30325045    0.34357340   -0.97899190
 H                  2.12404931   -0.62063466   -1.40688182
 H                  2.51582079    0.23690695    0.06424159
 C                  3.50415696    1.00238374   -1.68283314
 H                  3.72124259    1.93998617   -1.21520559
 H                  3.26845279    1.16418447   -2.71393162
 C                  4.73185969    0.07887526   -1.57569729
 H                  4.95975431   -0.09329813   -0.54452302
 H                  4.51926387   -0.85406352   -2.05457957
 C                  5.93754302    0.74590242   -2.26344904
 H                  6.15233337    1.67718419   -1.78232602
 H                  6.78965941    0.10270432   -2.19207770
 H                  5.70835096    0.92127247   -3.29379672

 1 2 1.0 5 1.0 6 1.0 7 1.0
 2 3 1.0 8 1.0 9 1.0
 3 4 1.0 10 1.0 18 1.0
 4 5 1.0 11 1.0 14 1.0
 5 12 1.0 13 1.0
 6
 7
 8
 9
 10
 11
 12
 13
 14 15 1.0 16 1.0 17 1.0
 15
 16
 17
 18 19 1.0 20 1.0 21 1.0
 19
 20
 21 22 1.0 23 1.0 24 1.0
 22
 23
 24 25 1.0 26 1.0 27 1.0
 25
 26
 27 28 1.0 29 1.0 30 1.0
 28
 29
 30 31 1.0 32 1.0 33 1.0
 31
 32
 33

