%chk=cyclopentanylhexane.chk
# hf/3-21g geom=connectivity

cyclopentanylhexane

0 1
 C                 -2.50764523    0.42303771    0.00000000
 C                 -0.98578723    0.42303771    0.00000000
 C                 -0.51701423    1.87090271    0.00000000
 C                 -1.74475423    2.76047071   -0.13318600
 C                 -2.97685123    1.86735771   -0.10359000
 H                 -2.89960723   -0.17940729   -0.85750800
 H                 -2.89776023   -0.04737329    0.93750400
 H                 -0.59716023   -0.11156029   -0.90328000
 H                 -0.59242023   -0.11769429    0.89683700
 H                  0.19494677    2.05407871   -0.84321600
 H                 -1.78043123    3.50654071    0.69979800
 H                 -1.70563323    3.33805571   -1.09092200
 H                 -3.62922923    2.12915971    0.76707400
 H                 -3.58859723    2.01497971   -1.02879300
 C                  0.23554991    2.18970447    1.30522514
 H                  0.55226963    3.21169192    1.29381168
 H                 -0.41355084    2.02676564    2.14010186
 C                  1.46649384    1.27211837    1.42527832
 H                  1.18690002    0.36243278    1.91435852
 H                  1.84296939    1.05075894    0.44846403
 C                  2.55800000    1.98239181    2.24730383
 H                  2.89631188    2.84851572    1.71789431
 H                  2.15619409    2.27743050    3.19409007
 C                  3.74088961    1.02145896    2.46861864
 H                  3.40604747    0.16291403    3.01238453
 H                  4.13225900    0.71351256    1.52157111
 C                  4.84242175    1.73940188    3.27035731
 H                  5.18138221    2.59462141    2.72390935
 H                  4.44940965    2.05252936    4.21502268
 C                  6.02174736    0.77579835    3.49896035
 H                  6.78765331    1.27504005    4.05487924
 H                  5.68306938   -0.07880365    4.04654839
 H                  6.41392061    0.46164218    2.55428790

 1 2 1.0 5 1.0 6 1.0 7 1.0
 2 3 1.0 8 1.0 9 1.0
 3 4 1.0 10 1.0 15 1.0
 4 5 1.0 11 1.0 12 1.0
 5 13 1.0 14 1.0
 6
 7
 8
 9
 10
 11
 12
 13
 14
 15 16 1.0 17 1.0 18 1.0
 16
 17
 18 19 1.0 20 1.0 21 1.0
 19
 20
 21 22 1.0 23 1.0 24 1.0
 22
 23
 24 25 1.0 26 1.0 27 1.0
 25
 26
 27 28 1.0 29 1.0 30 1.0
 28
 29
 30 31 1.0 32 1.0 33 1.0
 31
 32
 33

