%chk=f.chk
# hf/3-21g geom=connectivity

f

0 1
 C                  2.35509500    0.00002100    0.33433500
 C                  1.68470500   -1.25056900   -0.19684100
 C                  0.19989800   -1.25150600    0.10501200
 C                 -0.46943500   -0.00056100   -0.42759700
 C                  0.20046900    1.25003200    0.10424200
 C                  1.68548800    1.25123200   -0.19602100
 H                 -0.27625300   -2.15669400   -0.35353700
 H                  1.83929200   -1.31363200   -1.30611500
 H                  2.16153500   -2.15558800    0.26164300
 H                  2.30997000   -0.00035000    1.45520200
 H                 -0.42250900   -0.00100700   -1.54837500
 H                 -0.27600700    2.15502700   -0.35456100
 H                  0.04468200    1.31294400    1.21340500
 H                  1.84174000    1.31620800   -1.30494300
 H                  2.16106900    2.15569200    0.26481700
 H                  0.04474400   -1.31399700    1.21415300
 C                 -1.95624500    0.00015300   -0.02635600
 C                 -2.07355600    0.00034700    1.50916900
 H                 -3.10660000    0.00048500    1.78795300
 H                 -1.59787700   -0.87330700    1.90332600
 H                 -1.59769900    0.87399600    1.90312000
 C                 -2.64156700   -1.25699200   -0.59338400
 H                 -3.70079100   -1.10698600   -0.61443400
 H                 -2.28732400   -1.43908800   -1.58648600
 H                 -2.41275300   -2.09837300    0.02679500
 C                 -2.64042300    1.25781800   -0.59361300
 H                 -2.33058200    1.40603500   -1.60698900
 H                 -3.70246000    1.13189000   -0.56015400
 H                 -2.36359600    2.10936000   -0.00783000
 C                  3.84135500   -0.00025300   -0.06894200
 H                  4.31784100    0.87327000    0.32452800
 H                  4.31748200   -0.87403300    0.32439100
 H                  3.92140100   -0.00018500   -1.13594300

 1 2 1.0 6 1.0 10 1.0 30 1.0
 2 3 1.0 8 1.0 9 1.0
 3 4 1.0 7 1.0 16 1.0
 4 5 1.0 11 1.0 17 1.0
 5 6 1.0 12 1.0 13 1.0
 6 14 1.0 15 1.0
 7
 8
 9
 10
 11
 12
 13
 14
 15
 16
 17 18 1.0 22 1.0 26 1.0
 18 19 1.0 20 1.0 21 1.0
 19
 20
 21
 22 23 1.0 24 1.0 25 1.0
 23
 24
 25
 26 27 1.0 28 1.0 29 1.0
 27
 28
 29
 30 31 1.0 32 1.0 33 1.0
 31
 32
 33

