%chk=g.chk
# hf/3-21g geom=connectivity

g

0 1
 C                 -1.34777200    1.90128300    0.02950800
 C                 -1.45266100    0.65011500    0.87752000
 C                 -0.50688700   -0.42834000    0.38944600
 C                  0.92020800    0.07816700    0.33120900
 C                  1.02521100    1.32888700   -0.51748300
 C                  0.07889200    2.40740300   -0.03094000
 H                 -1.21219500    0.90162200    1.94395500
 H                 -2.50549800    0.26609100    0.85122300
 H                 -1.70871500    1.67892300   -1.00907500
 H                 -2.01160300    2.69895100    0.45322700
 H                  1.27934400    0.30118300    1.37026300
 H                  2.07789500    1.71319500   -0.49083400
 H                  0.78554200    1.07646500   -1.58393200
 H                  0.39648000    2.74991500    0.98894700
 H                  0.13445000    3.29281700   -0.71617800
 C                 -0.58438000   -1.64661800    1.32827200
 H                 -1.58861900   -2.01517300    1.35217700
 H                  0.06902000   -2.41472200    0.97052300
 H                 -0.28738400   -1.35642500    2.31441600
 C                 -0.94200000   -0.89520000   -1.01209500
 H                 -0.28490300   -1.66901100   -1.35023500
 H                 -0.90059500   -0.06984400   -1.69178200
 C                 -2.38243600   -1.43624400   -0.94872800
 H                 -3.00167200   -0.88174800   -1.62251000
 H                 -2.38798500   -2.46930600   -1.22739200
 H                 -2.75847400   -1.33359900    0.04774500
 C                  1.83359200   -1.01744100   -0.24928300
 H                  1.67130200   -1.93383100    0.27872500
 H                  1.60758400   -1.15809500   -1.28564100
 C                  3.30583400   -0.59169900   -0.09813300
 H                  3.93046200   -1.46045100   -0.10126100
 H                  3.57807500    0.04626500   -0.91286400
 H                  3.43188600   -0.06510300    0.82474800

 1 2 1.0 6 1.0 9 1.0 10 1.0
 2 3 1.0 7 1.0 8 1.0
 3 4 1.0 16 1.0 20 1.0
 4 5 1.0 11 1.0 27 1.0
 5 6 1.0 12 1.0 13 1.0
 6 14 1.0 15 1.0
 7
 8
 9
 10
 11
 12
 13
 14
 15
 16 17 1.0 18 1.0 19 1.0
 17
 18
 19
 20 21 1.0 22 1.0 23 1.0
 21
 22
 23 24 1.0 25 1.0 26 1.0
 24
 25
 26
 27 28 1.0 29 1.0 30 1.0
 28
 29
 30 31 1.0 32 1.0 33 1.0
 31
 32
 33

