%chk=mol_1.chk
# hf/3-21g geom=connectivity

mol_1

0 1
 C                 -1.12403099   -0.33333334    0.00000000
 C                  0.39782701   -0.33333334    0.00000000
 C                  0.86660001    1.11453166    0.00000000
 C                 -0.36113999    2.00409966   -0.13318600
 C                 -1.59323699    1.11098666   -0.10359000
 H                 -1.51599299   -0.93577834   -0.85750800
 H                 -1.51414599   -0.80374434    0.93750400
 H                  0.78645401   -0.86793134   -0.90328000
 H                  0.79119401   -0.87406534    0.89683700
 H                  1.57856101    1.29770766   -0.84321600
 H                 -0.39681699    2.75016966    0.69979800
 H                 -0.32201899    2.58168466   -1.09092200
 H                 -2.24561499    1.37278866    0.76707400
 H                 -2.20498299    1.25860866   -1.02879300
 C                  1.61916415    1.43333342    1.30522514
 H                  1.93588387    2.45532087    1.29381168
 H                  0.97006340    1.27039459    2.14010186
 C                  2.85010808    0.51574732    1.42527832
 H                  2.57051426   -0.39393827    1.91435852
 H                  3.22658363    0.29438789    0.44846403
 C                  3.94161424    1.22602076    2.24730383
 H                  4.27992611    2.09214467    1.71789431
 H                  3.53980833    1.52105945    3.19409007
 C                  5.12450385    0.26508791    2.46861864
 H                  4.78966171   -0.59345702    3.01238453
 H                  5.51587323   -0.04285849    1.52157111
 C                  6.22603599    0.98303083    3.27035731
 H                  6.56499644    1.83825036    2.72390935
 H                  5.83302389    1.29615831    4.21502268
 C                  7.40536160    0.01942730    3.49896035
 H                  8.17126754    0.51866900    4.05487924
 H                  7.06668361   -0.83517470    4.04654839
 H                  7.79753485   -0.29472887    2.55428790

 1 2 1.0 5 1.0 6 1.0 7 1.0
 2 3 1.0 8 1.0 9 1.0
 3 4 1.0 10 1.0 15 1.0
 4 5 1.0 11 1.0 12 1.0
 5 13 1.0 14 1.0
 6
 7
 8
 9
 10
 11
 12
 13
 14
 15 16 1.0 17 1.0 18 1.0
 16
 17
 18 19 1.0 20 1.0 21 1.0
 19
 20
 21 22 1.0 23 1.0 24 1.0
 22
 23
 24 25 1.0 26 1.0 27 1.0
 25
 26
 27 28 1.0 29 1.0 30 1.0
 28
 29
 30 31 1.0 32 1.0 33 1.0
 31
 32
 33

