%chk=mol_2.chk
# hf/3-21g geom=connectivity

mol_2

0 1
 C                 -2.76744182   -1.41860468    0.00000000
 C                 -1.24558382   -1.41860468    0.00000000
 C                 -0.77681082    0.02926032    0.00000000
 C                 -2.00455082    0.91882832   -0.13318600
 C                 -3.23664782    0.02571532   -0.10359000
 H                 -3.15940382   -2.02104968   -0.85750800
 H                 -3.15755682   -1.88901568    0.93750400
 H                 -0.85695682   -1.95320268   -0.90328000
 H                 -0.85221682   -1.95933668    0.89683700
 H                 -0.22987582    0.26095332    0.94858800
 H                 -0.06484982    0.21243632   -0.84321600
 H                 -1.96542982    1.49641332   -1.09092200
 H                 -3.84839382    0.17333732   -1.02879300
 C                 -2.05365848    1.94575756    1.01337615
 H                 -2.92371364    2.55920342    0.90572766
 H                 -2.09339188    1.43183092    1.95103316
 C                 -0.79335082    2.82945306    0.96534618
 H                 -0.00209459    2.35184059    1.50451211
 H                 -0.49610651    2.97175755   -0.05263970
 C                 -1.09967065    4.19574097    1.60645889
 H                 -1.47417221    4.04856344    2.59791607
 H                 -1.83367234    4.70821295    1.02035823
 C                  0.18942552    5.03627744    1.66416095
 H                  0.91751797    4.53189199    2.26447478
 H                  0.57333737    5.16891584    0.67425250
 C                 -0.12193365    6.41185135    2.28258788
 H                  0.77488832    6.99369412    2.32807780
 H                 -0.84567290    6.91866462    1.67906340
 H                 -0.51135028    6.27895078    3.27030856
 C                 -4.13445767    0.38601014    1.09462747
 H                 -4.47052337    1.39717868    0.99716961
 H                 -4.97942034   -0.27006092    1.11718546
 H                 -3.57723197    0.28124726    2.00205474

 1 2 1.0 5 1.0 6 1.0 7 1.0
 2 3 1.0 8 1.0 9 1.0
 3 4 1.0 10 1.0 11 1.0
 4 5 1.0 12 1.0 14 1.0
 5 13 1.0 30 1.0
 6
 7
 8
 9
 10
 11
 12
 13
 14 15 1.0 16 1.0 17 1.0
 15
 16
 17 18 1.0 19 1.0 20 1.0
 18
 19
 20 21 1.0 22 1.0 23 1.0
 21
 22
 23 24 1.0 25 1.0 26 1.0
 24
 25
 26 27 1.0 28 1.0 29 1.0
 27
 28
 29
 30 31 1.0 32 1.0 33 1.0
 31
 32
 33

