%chk=mol_9.chk
# hf/3-21g geom=connectivity

mol_9

0 1
 C                  0.99456613    1.18089714   -0.32226761
 H                  1.35122055    0.17208714   -0.32226761
 C                  1.50790835    1.90685341    0.93513736
 H                  2.57790654    1.90514635    0.93611571
 H                  1.15285179    2.91622643    0.93415997
 H                  1.14963938    1.40358542    1.80878756
 C                 -0.54543387    1.18091612   -0.32226761
 H                 -0.90208779    2.18972623   -0.32189069
 H                 -0.90210643    0.67684385   -1.19610732
 H                 -0.90210695    0.67619143    0.55119522
 C                  1.43790713    1.80785938   -1.40820826
 H                  1.08144255    1.30331306   -2.28185923
 H                  1.08104442    2.81659571   -1.40833645
 C                  2.97790709    1.80815875   -1.40802399
 H                  3.33470270    0.88946282   -0.99137705
 C                  3.49090933    2.98869382   -0.56258585
 H                  3.85646986    2.62397222    0.37456070
 H                  4.28190041    3.48461946   -1.08535813
 H                  2.69079412    3.67773135   -0.38954554
 C                  3.49138527    1.95015827   -2.85293794
 H                  3.15467493    1.11754503   -3.43455753
 H                  3.11513673    2.85733727   -3.27762993
 C                  3.68872449    0.68254564   -1.52044851
 H                  4.04539733    1.18694383   -0.64679700
 H                  4.04539733    1.18694383   -2.39410001
 H                  2.61872449    0.68255883   -1.52044851
 C                  4.20204020   -0.76938651   -1.52044851
 H                  3.84536796   -1.27378449   -0.64679664
 H                  3.84536677   -1.27378491   -2.39409965
 H                  5.27204020   -0.76939969   -1.52044923
 C                  5.03099091    1.98483882   -2.84951497
 H                  5.36479153    2.98734161   -2.68079832
 H                  5.40031433    1.35020280   -2.07122368
 C                  5.55862300    1.49006621   -4.20907536
 H                  5.10806018    2.05932444   -4.99510220
 H                  6.62113604    1.61125835   -4.24483158
 H                  5.31327414    0.45584537   -4.33192150

 1 2 1.0 3 1.0 7 1.0 11 2.0
 2
 3 4 1.0 5 1.0 6 1.0
 4
 5
 6
 7 8 1.0 9 1.0 10 1.0
 8
 9
 10
 11 12 1.0 13 1.0 14 1.0
 12
 13
 14 15 1.0 16 1.0 20 1.0
 15
 16 17 1.0 18 1.0 19 1.0
 17
 18
 19
 20 21 1.0 22 1.0 31 1.0
 21
 22
 23 24 1.0 25 1.0 26 1.0 27 1.0
 24
 25
 26
 27 28 1.0 29 1.0 30 1.0
 28
 29
 30
 31 32 1.0 33 1.0 34 1.0
 32
 33
 34 35 1.0 36 1.0 37 1.0
 35
 36
 37

